RUNTIME
INIT_TYPE       0       # initialization type: 0 = use .cini, 1 = use .chmic file
WRITE_IC        1       # write initial condition? 0 = no, 1 = outputs will be written to restart directory
ACTIVITY        1       # correction of activity: 0 = no correction, 1 = Debye-Huckel Equation
THERMO          0       # coupling of thermal modeling of PIHM: 0 = no, 1 = yes
RELMIN          1       # mineral volume fraction: 0 = absolute, 1 = relative
TRANSPORT_ONLY  0       # transport only mode: 0 = turn on reactions, 1 = transport only, suitable for stable tracer transport problems
PRECIPITATION   2       # precipitation concentration flag: 0 = zero concentration, 1 = specified in .chem, 2 = specified in .prep
CONDENSATION    1.67    # condensation factor
AVGSCL          600     # reaction time step (s)
OUTINTVL        DAILY   # output interval. Can be "YEARLY", "MONTHLY", "DAILY", "HOURLY", or any positive integer to indicate intervals in seconds. Setting interval to 0 will turn off output

GLOBAL
DIFFUSION       1E-5    # diffusion coefficient (cm2 s-1)
DISPERSION      0.10    # dispersion coefficient (m)
CEMENTATION     1       # cementation factor
TEMPERATURE     25      # assumed temperature for thermal decoupled mode
SW_THRESHOLD    0.7     # threshold in soil moisture function. Set to 1.0 for increase behavior
SW_EXP          1.5     # exponent in soil moisture function
Q10             2.0     # Q10 factor

PRIMARY_SPECIES         # list of all primary species
pH
Cl-
DOC
C5H7O2N
H4SiO4
Quartz
SOC
C5H7O2N(s)
X-

SECONDARY_SPECIES       # list of secondary species
OH-
XDOC

MINERAL_KINETICS       # list of minerals
Quartz         -label     default
SOC            -label     test
C5H7O2N(s)     -label     default

PRECIPITATION_CONC      # precipitation concentration
pH            4.30
Cl-           1.93E-5
DOC	          3.00E-7
C5H7O2N       1.00E-10
H4SiO4	      1.00E-6
Quartz	      1.00E-10  -ssa    1.48
SOC           1.00E-10  -ssa    5.0
C5H7O2N(s)    1.00E-10  -ssa    5.0
X-            1.00E-10

