RUNTIME
INIT_TYPE       0
ACTIVITY        1       # enable the correction of activity using Debye-Huckel Equaion (1) or using no correction (0)
THERMO          0       # whether (1) or not (0) to couple the thermo modeling of pihm
RELMIN          1       # whether mineral volume fraction is relative (1) or absolute (0)
TRANSPORT_ONLY  0       # whether (0) or not (1) to include reactive calculation. 0 for turn on reactions and 1 for turn off. Suitable for stable tracer transport problem.
PRECIPITATION   2       # whether (1) or not (0) precipitation will be specified, 2 to specify Pconc by file *.prep.
RT_DELAY        0       #
CONDENSATION    1.67    #
AVGSCL          600     # (second)
OUTINTVL        DAILY   # output interval. Can be "YEARLY", "MONTHLY", "DAILY", "HOURLY", or any positive integer to indicate intervals in seconds. Setting interval to 0 will turn off output

GLOBAL
T_SPECIES       9       # total species including 1) primary speices, 2) primary minerals, 3) primary adsorptions. The number of species that are put into the condition blocks
S_SPECIES       2       # the number of species that are put into the secondary_species block.
MIN_SPECIES     3       # the number of species that are minerals in the condition blocks.
ADSORPTION      0       # the number of species that are primary surface complexation, note that secondary surface complexation goes to secondary species
CATION_EXCHANGE 1       # the nubmer of species that are primary cation exchange
MINERAL_KINETIC 3       # the number of mineral kinetic reactions
AQUEOUS_KINETIC 0       # the number of aqueous kinetic reactions
DIFFUSION       1E-5    # fixed diffusion coefficient, in cm2/s
DISPERSION      0.10    # fixed dispersion coefficient, in m
CEMENTATION     1       # cementation factor
TEMPERATURE     25      # assumed temperature for thermo decouple mode

PRIMARY_SPECIES         # List of all primary species
pH
Cl-
DOC
C5H7O2N
H4SiO4
Quartz
SOC
C5H7O2N(s)
X-

SECONDARY_SPECIES       # List of secondary species
OH-
XDOC

MINERALS                # List of minerals
Quartz         -label     default
SOC            -label     test
C5H7O2N(s)     -label     default

PRECIPITATION_CONC
pH            4.30
Cl-           1.93E-5
DOC	          3.00E-7
C5H7O2N       1.00E-10
H4SiO4	      1.00E-6
Quartz	      1.00E-10  -ssa    1.48
SOC           1.00E-10  -ssa    5.0
C5H7O2N(s)    1.00E-10  -ssa    5.0
X-            1.00E-10

PUMP    1
# position  species  total_influx  influx_concentration
# unit               moles/year    mole/L
RIVER:19    Cl-      1000          1.6E-6

OUTPUT 1
RIVER:20
